# File generated by Flopy version 3.9.1 on 01/16/2025 at 11:36:54.
BEGIN options
END options

BEGIN griddata
  strt
    CONSTANT     320.00000000
END griddata

