# File generated by Flopy version 3.9.1 on 01/16/2025 at 11:36:54.
BEGIN options
END options

BEGIN nonlinear
  OUTER_DVCLOSE  1.00000000E-05
  OUTER_MAXIMUM  100
END nonlinear

BEGIN linear
  LINEAR_ACCELERATION  bicgstab
END linear

