# File generated by Flopy version 3.9.1 on 01/16/2025 at 11:36:54.
BEGIN options
  SAVE_FLOWS
END options

BEGIN packages
  STO6  exampleModel.sto  sto
  DIS6  exampleModel.dis  dis
  IC6  exampleModel.ic  ic
  NPF6  exampleModel.npf  npf
  WEL6  exampleModel.wel  wel_0
  RCH6  exampleModel.rcha  rcha_0
  RIV6  exampleModel.riv  riv_0
  OC6  exampleModel.oc  oc
END packages

