# File generated by Flopy version 3.9.1 on 01/16/2025 at 11:36:54.
BEGIN options
  BUDGET  FILEOUT  exampleModel.cbc
  HEAD  FILEOUT  exampleModel.hds
END options

BEGIN period  1
  SAVE  HEAD  ALL
  SAVE  BUDGET  ALL
END period  1

