# File generated by Flopy version 3.9.1 on 01/16/2025 at 11:36:54.
BEGIN options
END options

BEGIN timing
  TDIS6  exampleModel.tdis
END timing

BEGIN models
  gwf6  exampleModel.nam  exampleModel
END models

BEGIN exchanges
END exchanges

BEGIN solutiongroup  1
  ims6  exampleModel.ims  exampleModel
END solutiongroup  1

